INIT MASTER(S)
NASTRAN SYSTEM(319)=1
ID Sp3T,Femap
SOL SESTATIC
CEND
  TITLE = Export elements
  ECHO = NONE
BEGIN BULK
$ ***************************************************************************
$   Written by : Femap with NX Nastran
$   Version    : 11.3.0
$   Translator : MSC/MD Nastran
$   From Model : C:\Users\phfelix\Desktop\Sp3T.modfem
$   From Group : 5..To_Export
$   Date       : Mon Apr 16 13:13:00 2018
$ ***************************************************************************
$
PARAM,PRGPST,NO
PARAM,POST,-1
PARAM,OGEOM,NO
PARAM,AUTOSPC,NO
CORD2C         1       0      0.      0.      0.      0.      0.      1.+FEMAPC1
+FEMAPC1      1.      0.      1.        
CORD2S         2       0      0.      0.      0.      0.      0.      1.+FEMAPC2
+FEMAPC2      1.      0.      1.        
$ Femap with NX Nastran Property 15600033 : pshell.15600033
PSHELL  1560003315600000     3.115600000        15600000              0.
$ Femap with NX Nastran Property 15656005 : pshell.15647005
PSHELL  1565600515656000     3.215656000        15656000              0.
$ Femap with NX Nastran Property 25688001 : pshell.25676001
PSHELL  2568800125688000      6.25688000        25688000              0.
$ Femap with NX Nastran Property 25688002 : pshell.25676002
PSHELL  2568800225688000      6.25688000        25688000              0.
$ Femap with NX Nastran Property 25688003 : pshell.25676003
PSHELL  2568800325688000     10.25688000        25688000              0.
$ Femap with NX Nastran Property 35614003 : pshell.35600003
PSHELL  3561400335614000      3.35614000        35614000              0.
$ Femap with NX Nastran Property 35614018 : pshell.35600018
PSHELL  3561401835614000      3.35614000        35614000              0.
$ Femap with NX Nastran Property 35614022 : pshell.35600022
PSHELL  3561402235614000      3.35614000        35614000              0.
$ Femap with NX Nastran Property 35683000 : Lw_Flange_3
PSHELL  3568300035683000      2.35683000        35683000              0.
$ Femap with NX Nastran Property 35683001 : Up_Flange_3
PSHELL  3568300135683000      2.35683000        35683000              0.
$ Femap with NX Nastran Property 35683002 : Web_Interf_3
PSHELL  3568300235683000     3.535683000        35683000              0.
$ Femap with NX Nastran Property 35683003 : Web_Interf_1
PSHELL  3568300335683000     4.635683000        35683000              0.
$ Femap with NX Nastran Property 35683004 : Web_Interf_2
PSHELL  3568300435683000      6.35683000        35683000              0.
$ Femap with NX Nastran Property 35683005 : Lw_Flange_2
PSHELL  3568300535683000     2.935683000        35683000              0.
$ Femap with NX Nastran Property 35683006 : Lw_Flange_1
PSHELL  3568300635683000     2.235683000        35683000              0.
$ Femap with NX Nastran Property 35683007 : Up_Flange_2
PSHELL  3568300735683000      4.35683000        35683000              0.
$ Femap with NX Nastran Property 35683008 : Up_Flange_1
PSHELL  3568300835683000      4.35683000        35683000              0.
$ Femap with NX Nastran Property 35683009 : Pocket_11
PSHELL  3568300935683000      2.35683000        35683000              0.
$ Femap with NX Nastran Property 35683010 : Pocket_12
PSHELL  3568301035683000      2.35683000        35683000              0.
$ Femap with NX Nastran Property 35683011 : Pocket_13
PSHELL  3568301135683000      2.35683000        35683000              0.
$ Femap with NX Nastran Property 35683012 : Pocket_14
PSHELL  3568301235683000      2.35683000        35683000              0.
$ Femap with NX Nastran Property 35683013 : Pocket_22
PSHELL  3568301335683000      2.35683000        35683000              0.
$ Femap with NX Nastran Property 35683014 : Pocket_21
PSHELL  3568301435683000     2.135683000        35683000              0.
$ Femap with NX Nastran Property 35683015 : Pocket_23
PSHELL  3568301535683000      2.35683000        35683000              0.
$ Femap with NX Nastran Property 35683016 : Pocket_24
PSHELL  3568301635683000      2.35683000        35683000              0.
$ Femap with NX Nastran Property 35683017 : H_Stiff_11
PSHELL  3568301735683000      2.35683000        35683000              0.
$ Femap with NX Nastran Property 35683018 : H_Stiff_12
PSHELL  3568301835683000      2.35683000        35683000              0.
$ Femap with NX Nastran Property 35683019 : H_Stiff_13
PSHELL  3568301935683000      2.35683000        35683000              0.
$ Femap with NX Nastran Property 35683020 : H_Stiff_21
PSHELL  3568302035683000      2.35683000        35683000              0.
$ Femap with NX Nastran Property 35683021 : H_Stiff_22
PSHELL  3568302135683000      2.35683000        35683000              0.
$ Femap with NX Nastran Property 35683022 : H_Stiff_23
PSHELL  3568302235683000      2.35683000        35683000              0.
$ Femap with NX Nastran Property 35683023 : V_Stiff_11
PSHELL  3568302335683000      2.35683000        35683000              0.
$ Femap with NX Nastran Property 35683024 : V_Stiff_12
PSHELL  3568302435683000      2.35683000        35683000              0.
$ Femap with NX Nastran Property 35683025 : V_Stiff_13
PSHELL  3568302535683000      2.35683000        35683000              0.
$ Femap with NX Nastran Property 35683026 : V_Stiff_14
PSHELL  3568302635683000      2.35683000        35683000              0.
$ Femap with NX Nastran Property 35683027 : V_Stiff_21
PSHELL  3568302735683000      2.35683000        35683000              0.
$ Femap with NX Nastran Property 35683028 : V_Stiff_22
PSHELL  3568302835683000      2.35683000        35683000              0.
$ Femap with NX Nastran Property 35683029 : V_Stiff_23
PSHELL  3568302935683000      2.35683000        35683000              0.
$ Femap with NX Nastran Property 35683030 : V_Stiff_24
PSHELL  3568303035683000      2.35683000        35683000              0.
$ Femap with NX Nastran Property 35683031 : Web_Interf_3_Ref
PSHELL  3568303135683000     4.535683000        35683000              0.
$ Femap with NX Nastran Property 35683032 : Web_Interf_1_Ref_Low
PSHELL  3568303235683000      5.35683000        35683000              0.
$ Femap with NX Nastran Property 35683033 : Web_Interf_1_Ref_Up
PSHELL  3568303335683000     2.535683000        35683000              0.
$ Femap with NX Nastran Property 35683034 : Pocket_14_Ref
PSHELL  3568303435683000      3.35683000        35683000              0.
$ Femap with NX Nastran Property 35683035 : Pocket_24_Ref
PSHELL  3568303535683000      3.35683000        35683000              0.
$ Femap with NX Nastran Property 35683036 : Web_Interf_3_Low_Ref
PSHELL  3568303635683000     10.35683000        35683000              0.
$ Femap with NX Nastran Property 35698000 : pshell.45627000
PSHELL  3569800035698000     3.535698000        35698000              0.
$ Femap with NX Nastran Property 45690564 : WELD/FASTENER Property
PFAST   45690564    6.35      -1       0 45970.4 10407.3 10407.3      0.+       
+          9250.   9250.      0.      0.                                
$ Femap with NX Nastran Property 45690587 : WELD/FASTENER Property
PFAST   45690587    6.35      -1       0 45970.4 10407.3 10407.3      0.+       
+          9250.   9250.      0.      0.                                
$ Femap with NX Nastran Property 45690598 : WELD/FASTENER Property
PFAST   45690598    6.35      -1       0 45970.4 10407.3 10407.3      0.+       
+          9250.   9250.      0.      0.                                
$ Femap with NX Nastran Property 45690627 : WELD/FASTENER Property
PFAST   45690627    6.35      -1       0 45970.4 10407.3 10407.3      0.+       
+          9250.   9250.      0.      0.                                
$ Femap with NX Nastran Property 45690628 : WELD/FASTENER Property
PFAST   45690628    6.35      -1       0 45970.4 10407.3 10407.3      0.+       
+          9250.   9250.      0.      0.                                
$ Femap with NX Nastran Property 45690629 : WELD/FASTENER Property
PFAST   45690629    6.35      -1       0 45970.4 10407.3 10407.3      0.+       
+          9250.   9250.      0.      0.                                
$ Femap with NX Nastran Property 45690636 : WELD/FASTENER Property
PFAST   45690636    6.35      -1       0 45970.4 10407.3 10407.3      0.+       
+          9250.   9250.      0.      0.                                
$ Femap with NX Nastran Property 45690659 : WELD/FASTENER Property
PFAST   45690659    6.35      -1       0 45970.4 10407.3 10407.3      0.+       
+          9250.   9250.      0.      0.                                
$ Femap with NX Nastran Property 45690677 : WELD/FASTENER Property
PFAST   45690677    6.35      -1       0 45970.4 10407.3 10407.3      0.+       
+          9250.   9250.      0.      0.                                
$ Femap with NX Nastran Property 45690679 : WELD/FASTENER Property
PFAST   45690679    6.35      -1       0 45970.4 10407.3 10407.3      0.+       
+          9250.   9250.      0.      0.                                
$ Femap with NX Nastran Property 45690684 : WELD/FASTENER Property
PFAST   45690684    6.35      -1       0 45970.4 10407.3 10407.3      0.+       
+          9250.   9250.      0.      0.                                
$ Femap with NX Nastran Property 45690691 : WELD/FASTENER Property
PFAST   45690691    6.35      -1       0 45970.4 10407.3 10407.3      0.+       
+          9250.   9250.      0.      0.                                
$ Femap with NX Nastran Property 45690692 : WELD/FASTENER Property
PFAST   45690692    6.35      -1       0 45970.4 10407.3 10407.3      0.+       
+          9250.   9250.      0.      0.                                
$ Femap with NX Nastran Property 45690693 : WELD/FASTENER Property
PFAST   45690693    6.35      -1       0 45970.4 10407.3 10407.3      0.+       
+          9250.   9250.      0.      0.                                
$ Femap with NX Nastran Property 45690699 : WELD/FASTENER Property
PFAST   45690699    6.35      -1       0 45970.4 10407.3 10407.3      0.+       
+          9250.   9250.      0.      0.                                
$ Femap with NX Nastran Property 45690700 : WELD/FASTENER Property
PFAST   45690700    6.35      -1       0 45970.4 10407.3 10407.3      0.+       
+          9250.   9250.      0.      0.                                
$ Femap with NX Nastran Property 45690709 : WELD/FASTENER Property
PFAST   45690709    6.35      -1       0 52935.6  9692.8  9692.8      0.+       
+          7190.   7190.      0.      0.                                
$ Femap with NX Nastran Property 45690710 : WELD/FASTENER Property
PFAST   45690710    6.35      -1       0 43671.9  10633.  10633.      0.+       
+          9820.   9820.      0.      0.                                
$ Femap with NX Nastran Property 45690711 : WELD/FASTENER Property
PFAST   45690711    6.35      -1       0 43671.9  10633.  10633.      0.+       
+          9820.   9820.      0.      0.                                
$ Femap with NX Nastran Property 45690733 : WELD/FASTENER Property
PFAST   45690733    6.35      -1       0 43671.9  10633.  10633.      0.+       
+          9820.   9820.      0.      0.                                
$ ... 222 like lines cut
$ Femap with NX Nastran Material 1 : ISOTROPIC Material
MAT1           111652.14 4274.75     .31  4.43-6      0.      0.        
$ Femap with NX Nastran Material 15600000 : Material Degradado
MAT1    15600000  4734.4 1779.85     .33   2.8-6      0.      0.        
$ Femap with NX Nastran Material 15656000 : mat1.15656000
MAT1    15656000  7101.62688.955     .33   2.8-6      0.      0.        
$ Femap with NX Nastran Material 25688000 : mat1.25688000
MAT1    25688000  7101.62688.955     .33   2.8-6      0.      0.        
$ Femap with NX Nastran Material 35614000 : mat1.35614000
MAT1    3561400011652.144481.592     .31  4.43-6      0.      0.        
$ Femap with NX Nastran Material 35683000 : Aluminum Spar3 Tip" "MAT1
MAT1    35683000  7101.62669.774     .33   2.8-6      0.      0.        
$ Femap with NX Nastran Material 35698000 : mat1.35698000
MAT1    35698000  7101.62688.955     .33   2.8-6      0.      0.        
GRID    45683000       014624.02-4125.19-827.465       0
GRID    45683001       014623.72-4131.78-826.238       0
GRID    45683002       014623.41-4138.37-825.012       0
GRID    45683003       0 14623.1-4144.96-823.788       0
GRID    45683004       014622.79-4151.56-822.566       0
GRID    45683005       014622.49-4158.15-821.345       0
GRID    45683006       014615.43-4157.82-821.906       0
GRID    45683007       014608.37-4157.49-822.466       0
GRID    45683008       014601.32-4157.16-823.027       0
GRID    45683009       014594.26-4156.83-823.587       0
GRID    45683010       014587.38-4155.58-824.309       0
GRID    45683011       014582.42-4150.83-825.559       0
GRID    45683012       0 14581.1 -4144.1-826.929       0
GRID    45683013       014581.42-4137.14-828.227       0
GRID    45683014       014581.75-4130.19-829.528       0
GRID    45683015       014582.07-4123.23 -830.83       0
GRID    45683016       014588.06-4123.51-830.349       0
GRID    45683017       014594.06-4123.79-829.869       0
GRID    45683018       014601.55-4124.14-829.268       0
GRID    45683019       014609.04-4124.49-828.667       0
$ ... 5454 like lines cut
CQUAD4  456830003568300845683404456862214568622245683405                
CQUAD4  456830013568300845683405456862224568622345683406                
CQUAD4  456830023568300845683406456862234568622445683407                
CQUAD4  456830033568300845683407456862244568622545683408                
CQUAD4  456830043568300845683408456862254568622645683409                
CQUAD4  456830053568300845683409456862264568622745683410                
CQUAD4  456830063568300845683410456862274568622845683411                
CQUAD4  456830073568300845683411456862284568622945683412                
CQUAD4  456830083568300845683412456862294568623045683413                
CQUAD4  456830093568300845686230456862314568341445683413                
CTRIA3  4568301035683008456862314568616845683414                        
CQUAD4  456830113568300845686436456862304568622945686457                
CQUAD4  456830123568300845686457456862294568622845686458                
CQUAD4  456830133568300845686222456862214568643745686459                
CQUAD4  456830143568300845686458456862284568622745686460                
CQUAD4  456830153568300845686460456862274568622645686461                
CQUAD4  456830163568300845686461456862264568622545686462                
CQUAD4  456830173568300845686462456862254568622445686463                
CQUAD4  456830183568300845686463456862244568622345686464                
CQUAD4  456830193568300845686464456862234568622245686459                
CQUAD4  456830203568300845686456456864244568642545686465                
CQUAD4  456830213568300845686465456864254568642645686466                
CQUAD4  456830223568300845686466456864264568642745686467                
CQUAD4  456830233568300845686467456864274568642845686468                
CQUAD4  456830243568300845686468456864284568642945686469                
CQUAD4  456830253568300845686469456864294568643045686470                
CQUAD4  456830263568300845686470456864304568643145686471                
CQUAD4  456830273568300845686471456864314568643245686472                
CQUAD4  456830283568300845686472456864324568643345686473                
CQUAD4  456830293568300845686473456864334568643445686474                
CQUAD4  456830303568300845686474456864344568643545686475                
$ ... 99 like lines cut
CTRIA3  4568313035683008456865464568655545686547                        
CQUAD4  456831313568300845686556456865574568642545686424                
CQUAD4  456831323568300845686557456865584568642645686425                
CQUAD4  456831333568300845686558456865594568642745686426                
CQUAD4  456831343568300845686559456865604568642845686427                
CQUAD4  456831353568300845686560456865614568642945686428                
CQUAD4  456831363568300845686561456865624568643045686429                
CQUAD4  456831373568300845686562456865634568643145686430                
CQUAD4  456831383568300845686563456865644568643245686431                
CQUAD4  456831393568300845686564456865654568643345686432                
CQUAD4  456831403568300845686565456865664568643445686433                
CQUAD4  456831413568300845686566456865674568643545686434                
CQUAD4  456831423568300845686567456865684568643645686435                
CQUAD4  456831433568300845686568456862314568623045686436                
CQUAD4  456831443568300745683294456832954568329145683292                
CQUAD4  456831453568300745683295456832794568328045683291                
CQUAD4  456831463568300745683254456832554568329545683294                
CQUAD4  456831473568300745683255456832564568327945683295                
CQUAD4  456831483568300745683251456832964568329345683250                
CQUAD4  456831493568300745683296456832944568329245683293                
CQUAD4  456831503568300745683252456832534568329645683251                
$ ... 92 like lines cut
CTRIA3  4568324335683007456832754568327445683359                        
CQUAD4  456832443568300745683366456833644568335845683359                
CQUAD4  456832453568300745683262456832634568336745683272                
CQUAD4  456832463568300745683272456833674568336645683273                
CQUAD4  456832473568300745683263456832644568336545683367                
CQUAD4  456832483568300745683367456833654568336445683366                
CQUAD4  456832493568300745683369456833714568337245683368                
CQUAD4  456832503568300745683368456833724568322845683229                
CQUAD4  456832513568300745683371456833544568335545683372                
CQUAD4  456832523568300745683372456833554568322745683228                
CQUAD4  456832533568300745683357456833564568337345683370                
CQUAD4  456832543568300745683370456833734568337145683369                
CQUAD4  456832553568300745683356456833524568335345683373                
CQUAD4  456832563568300745683373456833534568335445683371                
CQUAD4  456832573568300745683277456833744568337645683278                
CQUAD4  456832583568300745683278456833764568323145683232                
CQUAD4  456832593568300745683374456833754568337745683376                
CQUAD4  456832603568300745683376456833774568323045683231                
CQUAD4  456832613568300745683375456833694568336845683377                
CQUAD4  456832623568300745683377456833684568322945683230                
CQUAD4  456832633568300745683275456833594568337845683276                
$ ... 56 like lines cut
CTRIA3  4568332035683033456830294568301145683012                        
CQUAD4  456833213568303345683010456830114568302945683026                
CQUAD4  456833223568303345683018456830214568302445683017                
CQUAD4  456833233568303345683021456830224568302545683024                
CQUAD4  456833243568303345683022456830234568302645683025                
CQUAD4  456833253568303345683023456830094568301045683026                
CQUAD4  456833263568303345683031456830334568303445683030                
CQUAD4  456833273568303345683030456830344568300245683003                
CQUAD4  456833283568303345683000456830014568303545683020                
CQUAD4  456833293568303345683033456830204568303545683034                
CQUAD4  456833303568303345683002456830344568303545683001                
CQUAD4  456833313568303345683022456830214568303645683032                
CQUAD4  456833323568303345683032456830364568303345683031                
CQUAD4  456833333568303345683021456830184568301945683036                
CQUAD4  456833343568303345683036456830194568302045683033                
CQUAD4  456833353568303345683006456830384568300445683005                
CQUAD4  456833363568303345683038456830304568300345683004                
CQUAD4  456833373568303345683007456830374568303845683006                
CQUAD4  456833383568303345683037456830314568303045683038                
CQUAD4  456833393568303345683009456830234568303945683008                
CQUAD4  456833403568303345683008456830394568303745683007                
$ ... 339 like lines cut
CTRIA3  4568368035683005456837524568374345683744                        
CQUAD4  456836813568300545683751456837364568373745683752                
CQUAD4  456836823568300545683752456837374568373845683743                
CQUAD4  456836833568300545683726456837274568375345683749                
CQUAD4  456836843568300545683749456837534568375045683748                
CQUAD4  456836853568300545683735456837544568372845683729                
CQUAD4  456836863568300545683754456837534568372745683728                
CQUAD4  456836873568300545683736456837514568375445683735                
CQUAD4  456836883568300545683751456837504568375345683754                
CQUAD4  456836893568300545683476456837554568374745683477                
CQUAD4  456836903568300545683755456837564568374645683747                
CQUAD4  456836913568300545683756456837484568374545683746                
CQUAD4  456836923568300545683474456837244568375745683475                
CQUAD4  456836933568300545683475456837574568375545683476                
CQUAD4  456836943568300545683749456837584568372545683726                
CQUAD4  456836953568300545683758456837574568372445683725                
CQUAD4  456836963568300545683748456837564568375845683749                
CQUAD4  456836973568300545683756456837554568375745683758                
CQUAD4  456836983568300545683759456837614568372045683721                
CQUAD4  456836993568300545683762456837634568376545683761                
CQUAD4  456837003568300545683720456837614568376545683766                
$ ... 99 like lines cut
CTRIA3  4568380035683005456834684568346945688281                        
CQUAD4  456838013568300545683467456882804568827945683466                
CQUAD4  456838023568300545683466456882794568827845683465                
CQUAD4  456838033568300545683465456882784568827745683464                
CQUAD4  456838043568300545683464456882774568827645683463                
CQUAD4  456838053568300545683463456882764568827545683462                
CQUAD4  456838063568300545683462456882754568346045683461                
CQUAD4  456838073568300545683459456862204568347245683473                
CQUAD4  456838083568300045683419456834204568342145683436                
CQUAD4  456838093568300045683425456834264568342745683437                
CQUAD4  456838103568300045683435456834154568341645683438                
CQUAD4  456838113568300045683438456834164568341745683439                
CQUAD4  456838123568300045683436456834214568342245683440                
CQUAD4  456838133568300045683440456834224568342345683441                
CQUAD4  456838143568300045683441456834234568342445683442                
CQUAD4  456838153568300045683442456834244568342545683437                
CQUAD4  456838163568300045683439456834174568341845683443                
CQUAD4  456838173568300045683443456834184568341945683436                
CQUAD4  456838183568300045683437456834274568342845683444                
CQUAD4  456838193568300045683444456834284568342945683445                
CQUAD4  456838203568300045683445456834294568343045683446                
$ ... 19 like lines cut
CTRIA3  4568384035683000456834404568345645683457                        
CQUAD4  456838413568300045683563456835654568356745683562                
CQUAD4  456838423568300045683562456835674568355845683559                
CQUAD4  456838433568300045683565456835664568356845683567                
CQUAD4  456838443568300045683567456835684568355745683558                
CQUAD4  456838453568300045683566456834824568348345683568                
CQUAD4  456838463568300045683568456834834568348445683557                
CQUAD4  456838473568300045683477456834784568356945683564                
CQUAD4  456838483568300045683564456835694568356545683563                
CQUAD4  456838493568300045683478456834794568357045683569                
CQUAD4  456838503568300045683569456835704568356645683565                
CQUAD4  456838513568300045683479456834804568348145683570                
CQUAD4  456838523568300045683570456834814568348245683566                
CQUAD4  456838533568300045683545456835714568357345683544                
CQUAD4  456838543568300045683544456835734568356145683543                
CQUAD4  456838553568300045683571456835724568357445683573                
CQUAD4  456838563568300045683573456835744568356045683561                
CQUAD4  456838573568300045683572456835634568356245683574                
CQUAD4  456838583568300045683574456835624568355945683560                
CQUAD4  456838593568300045683474456834754568357545683546                
CQUAD4  456838603568300045683546456835754568357145683545                
$ ... 640 like lines cut
CTRIA3  4568450135683003456869404568695845686941                        
CQUAD4  456845023568300445686995456869984568699945686994                
CQUAD4  456845033568300445686994456869994568699045686991                
CQUAD4  456845043568300445686998456869824568698345686999                
CQUAD4  456845053568300445686999456869834568698445686990                
CQUAD4  456845063568300445686996456870004568699845686995                
CQUAD4  456845073568300445687000456869814568698245686998                
CQUAD4  456845083568300445686047456860484568700145686997                
CQUAD4  456845093568300445686997456870014568700045686996                
CQUAD4  456845103568300445686048456860494568698045687001                
CQUAD4  456845113568300445687001456869804568698145687000                
CQUAD4  456845123568300445686977456870024568700445686976                
CQUAD4  456845133568300445686976456870044568699345686975                
CQUAD4  456845143568300445687002456870034568700545687004                
CQUAD4  456845153568300445687004456870054568699245686993                
CQUAD4  456845163568300445687003456869954568699445687005                
CQUAD4  456845173568300445687005456869944568699145686992                
CQUAD4  456845183568300445685883456860454568700645686979                
CQUAD4  456845193568300445686979456870064568700745686978                
CQUAD4  456845203568300445686978456870074568700245686977                
CQUAD4  456845213568300445686997456870084568604645686047                
$ ... 263 like lines cut
CTRIA3  4568478535683036456872594568725845687262                        
CQUAD4  456847863568303645687256456872574568726345687262                
CQUAD4  456847873568303645687262456872634568718445687185                
CQUAD4  456847883568303645687257456854984568549945687263                
CQUAD4  456847893568303645687263456854994568550045687184                
CQUAD4  456847903568303645687264456872664568720745687206                
CQUAD4  456847913568303645687266456872534568720845687207                
CQUAD4  456847923568303645687255456872544568726745687265                
CQUAD4  456847933568303645687265456872674568726645687264                
CQUAD4  456847943568303645687254456872514568725245687267                
CQUAD4  456847953568303645687267456872524568725345687266                
CQUAD4  456847963568303645687206456872054568726845687264                
CQUAD4  456847973568303645687264456872684568726945687265                
CQUAD4  456847983568303645687265456872694568725645687255                
CQUAD4  456847993568303645685496456872704568720445685495                
CQUAD4  456848003568303645687270456872684568720545687204                
CQUAD4  456848013568303645685498456872574568727145685497                
CQUAD4  456848023568303645685497456872714568727045685496                
CQUAD4  456848033568303645687257456872564568726945687271                
CQUAD4  456848043568303645687271456872694568726845687270                
CQUAD4  456848053568303645687276456872784568727245687273                
$ ... 514 like lines cut
CTRIA3  4568532035683002456842384568423745684251                        
CQUAD4  456853213568300245683872456842524568341645683415                
CQUAD4  456853223568300245684252456842534568341745683416                
CQUAD4  456853233568300245684253456842484568341845683417                
CQUAD4  456853243568300245683874456842414568425445683873                
CQUAD4  456853253568300245683873456842544568425245683872                
CQUAD4  456853263568300245684249456842554568424045684239                
CQUAD4  456853273568300245684255456842544568424145684240                
CQUAD4  456853283568300245684248456842534568425545684249                
CQUAD4  456853293568300245684253456842524568425445684255                
CQUAD4  456853303568300945685536456855394568554345685535                
CQUAD4  456853313568300945685535456855434568552945685530                
CQUAD4  456853323568300945685539456855404568554245685543                
CQUAD4  456853333568300945685543456855424568552845685529                
CQUAD4  456853343568300945685540456855414568554445685542                
CQUAD4  456853353568300945685542456855444568552745685528                
CQUAD4  456853363568300945685541456855204568552145685544                
CQUAD4  456853373568300945685544456855214568552245685527                
CQUAD4  456853383568300945685545456855474568550645685507                
CQUAD4  456853393568300945685547456855384568550545685506                
CQUAD4  456853403568300945685540456855394568554845685546                
$ ... 863 like lines cut
CTRIA3  4568620435683014456844584568445645684457                        
CQUAD4  456862053568301445684457456844524568429945684298                
CQUAD4  456862063568301445684418456844434568445945684419                
CQUAD4  456862073568301445684419456844594568445645684420                
CQUAD4  456862083568301445684443456844424568446045684459                
CQUAD4  456862093568301445684459456844604568445745684456                
CQUAD4  456862103568301445684442456844414568445345684460                
CQUAD4  456862113568301445684460456844534568445245684457                
CQUAD4  456862123568301445684470456844724568446745684468                
CQUAD4  456862133568301445684472456844624568446345684467                
CQUAD4  456862143568301445683838456838374568447345684471                
CQUAD4  456862153568301445684471456844734568447245684470                
CQUAD4  456862163568301445683837456838364568446145684473                
CQUAD4  456862173568301445684473456844614568446245684472                
CQUAD4  456862183568301445684291456844744568446945684290                
CQUAD4  456862193568301445684474456844704568446845684469                
CQUAD4  456862203568301445683840456838394568447545684292                
CQUAD4  456862213568301445684292456844754568447445684291                
CQUAD4  456862223568301445683839456838384568447145684475                
CQUAD4  456862233568301445684475456844714568447045684474                
CQUAD4  456862243568301445684477456844794568448045684476                
$ ... 1619 like lines cut
CTRIA3  4568784435683023456876024568760345687604                        
CQUAD4  456878453568302345687600456876054568760245687599                
CQUAD4  456878463568302345687605456876064568760345687602                
CQUAD4  456878473568302345687606456842574568425845687603                
CQUAD4  456878483568302345683043456830444568760745687601                
CQUAD4  456878493568302345687601456876074568760545687600                
CQUAD4  456878503568302345684256456876084568304545683046                
CQUAD4  456878513568302345687608456876074568304445683045                
CQUAD4  456878523568302345684257456876064568760845684256                
CQUAD4  456878533568302345687606456876054568760745687608                
CQUAD4  456878543568302345687591456876094568761145687590                
CQUAD4  456878553568302345687590456876114568759745687589                
CQUAD4  456878563568302345687609456876104568761245687611                
CQUAD4  456878573568302345687611456876124568759645687597                
CQUAD4  456878583568302345687610456875994568759845687612                
CQUAD4  456878593568302345687612456875984568759545687596                
CQUAD4  456878603568302345683040456830414568761345687593                
CQUAD4  456878613568302345687593456876134568761445687592                
CQUAD4  456878623568302345687592456876144568760945687591                
CQUAD4  456878633568302345687601456876154568304245683043                
CQUAD4  456878643568302345687615456876134568304145683042                
$ ... 175 like lines cut
CTRIA3  4568804035683027456882144568821545688217                        
CQUAD4  456880413568302745687761456838404568383945688219                
CQUAD4  456880423568302745688219456838394568383845688217                
CQUAD4  456880433568302745688207456882204568822145688206                
CQUAD4  456880443568302745688206456882214568821245688205                
CQUAD4  456880453568302745688220456882144568821345688221                
CQUAD4  456880463568302745688221456882134568821145688212                
CQUAD4  456880473568302745688208456882224568822045688207                
CQUAD4  456880483568302745688222456882154568821445688220                
CQUAD4  456880493568302745687764456877634568822345688209                
CQUAD4  456880503568302745688209456882234568822245688208                
CQUAD4  456880513568302745687763456877624568821645688223                
CQUAD4  456880523568302745688223456882164568821545688222                
CQUAD4  456880533568302745683834456882244568822845683835                
CQUAD4  456880543568302745683835456882284568821045683836                
CQUAD4  456880553568302745688224456882254568822745688228                
CQUAD4  456880563568302745688228456882274568821145688210                
CQUAD4  456880573568302745688225456882264568822945688227                
CQUAD4  456880583568302745688227456882294568821245688211                
CQUAD4  456880593568302745688226456882034568820445688229                
CQUAD4  456880603568302745688229456882044568820545688212                
$ ... 128 like lines cut
CTRIA3  4568818935683030456882654568826445688268                        
CQUAD4  456881903568303045683869456838684568826845688263                
CQUAD4  456881913568303045683868456838674568824845688268                
CQUAD4  456881923568303045683422456882694568827145683423                
CQUAD4  456881933568303045683423456882714568824545683424                
CQUAD4  456881943568303045688261456882724568827045688262                
CQUAD4  456881953568303045688272456882714568826945688270                
CQUAD4  456881963568303045688243456882444568827245688261                
CQUAD4  456881973568303045688244456882454568827145688272                
CQUAD4  456881983568303045683420456838714568827345683421                
CQUAD4  456881993568303045683421456882734568826945683422                
CQUAD4  456882003568303045688263456882744568387045683869                
CQUAD4  456882013568303045688274456882734568387145683870                
CQUAD4  456882023568303045688262456882704568827445688263                
CQUAD4  456882033568303045688270456882694568827345688274                
CFAST   4569056445690564    PROP3568300335614003        4569056445692564        
CFAST   4569058745690587    PROP3568300335614003        4569058745692587        
CFAST   4569059845690598    PROP3568300335614003        4569059845692598        
CFAST   4569062745690627    PROP3568300335614003        4569062745692627        
CFAST   4569062845690628    PROP3568300335614003        4569062845692628        
CFAST   4569062945690629    PROP3568300335614003        4569062945692629        
CFAST   4569063645690636    PROP3568300335614003        4569063645692636        
CFAST   4569065945690659    PROP3568300335614003        4569065945692659        
CFAST   4569067745690677    PROP3568300335614003        4569067745692677        
CFAST   4569067945690679    PROP3568300335614003        4569067945692679        
CFAST   4569068445690684    PROP3568300335614003        4569068445692684        
CFAST   4569069145690691    PROP3568300335614003        4569069145692691        
CFAST   4569069245690692    PROP3568300335614003        4569069245692692        
CFAST   4569069345690693    PROP3568300335614003        4569069345692693        
CFAST   4569069945690699    PROP3568300335614003        4569069945692699        
CFAST   4569070045690700    PROP3568300335614003        4569070045692700        
CFAST   4569070945690709    PROP3568300335614003        4569070945692709        
CFAST   4569071045690710    PROP3568303235614003        4569071045692710        
CFAST   4569071145690711    PROP3568303235614003        4569071145692711        
CFAST   4569073345690733    PROP3568303235614003        4569073345692733        
$ ... 74 like lines cut
ENDDATA
